@<TRIPOS>MOLECULE
complex_38S_pose1.pdb
65 69 1 0 0
SMALL
AMBER ff14SB


@<TRIPOS>ATOM
      1 C26        51.9518   48.0434   48.2034 C.ar      1 LIG   -0.1310
      2 H30        52.3797   47.2373   48.7952 H         1 LIG    0.1425
      3 C27        52.7540   48.7507   47.3037 C.ar      1 LIG   -0.1160
      4 H31        53.8130   48.5137   47.2437 H         1 LIG    0.1460
      5 C25        50.6028   48.3594   48.3263 C.ar      1 LIG   -0.1270
      6 H29        49.9737   47.8072   49.0241 H         1 LIG    0.1400
      7 C24        50.0499   49.3707   47.5455 C.ar      1 LIG   -0.1310
      8 H28        48.9929   49.6207   47.6465 H         1 LIG    0.1425
      9 C23        50.8451   50.0589   46.6318 C.ar      1 LIG   -0.1160
     10 H27        50.3992   50.8301   46.0100 H         1 LIG    0.1460
     11 C3         52.2101   49.7619   46.5119 C.ar      1 LIG   -0.0618
     12 C2         53.0312   50.4822   45.5652 C.ar      1 LIG    0.0018
     13 C1         53.9223   49.9655   44.5722 C.ar      1 LIG   -0.3966
     14 C6         54.3094   48.7036   44.1949 C.ar      1 LIG    0.7522
     15 N1         53.8263   47.5904   44.7825 N.pl3     1 LIG   -0.8409
     16 H1         53.0842   47.7152   45.4584 H         1 LIG    0.4568
     17 C7         54.0823   46.2315   44.2861 C.3       1 LIG    0.2158
     18 C8         53.0912   45.2184   44.9007 C.3       1 LIG    0.0074
     19 H2         53.3782   44.2275   44.5384 H         1 LIG    0.0947
     20 S1         53.2010   45.1679   46.7177 S.3       1 LIG   -0.3322
     21 C22        51.4179   44.8779   46.8504 C.3       1 LIG   -0.0053
     22 C21        50.7541   45.6792   45.7255 C.3       1 LIG   -0.0844
     23 C20        51.6173   45.4615   44.4696 C.3       1 LIG   -0.0834
     24 H21        51.5174   46.3018   43.7828 H         1 LIG    0.0642
     25 H22        51.2453   44.5797   43.9483 H         1 LIG    0.0642
     26 H23        49.7191   45.3693   45.5693 H         1 LIG    0.0582
     27 H24        50.7521   46.7391   45.9838 H         1 LIG    0.0582
     28 H25        51.2249   43.8109   46.7090 H         1 LIG    0.0742
     29 H26        51.0508   45.1846   47.8344 H         1 LIG    0.0742
     30 H3         55.1013   45.9354   44.5531 H         1 LIG    0.0677
     31 H4         54.0014   46.2009   43.1951 H         1 LIG    0.0677
     32 N2         55.1345   48.5119   43.1679 N.ar      1 LIG   -0.7800
     33 C9         55.5226   49.6040   42.4933 C.ar      1 LIG    0.6989
     34 H5         56.1757   49.4383   41.6433 H         1 LIG    0.0641
     35 N3         55.1566   50.8740   42.7456 N.ar      1 LIG   -0.7170
     36 C10        54.3575   51.0047   43.8065 C.ar      1 LIG    0.5877
     37 O1         53.8414   52.2026   44.2298 O.2       1 LIG   -0.2194
     38 C4         53.0363   51.8503   45.3036 C.ar      1 LIG    0.0018
     39 C5         52.5382   52.9200   46.1579 C.ar      1 LIG   -0.0218
     40 C19        52.0850   52.7397   47.4768 C.ar      1 LIG   -0.0745
     41 C18        51.7630   53.8294   48.2801 C.ar      1 LIG   -0.1675
     42 H19        51.4418   53.6631   49.3060 H         1 LIG    0.1415
     43 H20        52.0480   51.7645   47.9425 H         1 LIG    0.1670
     44 C11        52.6213   54.2332   45.6783 C.ar      1 LIG   -0.0745
     45 H6         52.9624   54.4195   44.6654 H         1 LIG    0.1670
     46 C12        52.3082   55.3299   46.4876 C.ar      1 LIG   -0.1675
     47 H7         52.3933   56.3311   46.0799 H         1 LIG    0.1415
     48 C13        51.9110   55.1226   47.8035 C.ar      1 LIG    0.0891
     49 O2         51.7349   56.1573   48.6987 O.3       1 LIG   -0.3759
     50 C14        52.3540   57.4473   48.5192 C.3       1 LIG    0.1074
     51 H8         51.7411   58.0346   47.8273 H         1 LIG    0.0812
     52 H9         53.3610   57.3234   48.1143 H         1 LIG    0.0812
     53 C15        52.4308   58.1359   49.8984 C.3       1 LIG    0.1008
     54 H10        51.4578   58.0458   50.3903 H         1 LIG    0.1137
     55 H11        52.6439   59.1980   49.7507 H         1 LIG    0.1137
     56 N4         53.4937   57.6006   50.8574 N.4       1 LIG   -0.6734
     57 H12        54.4578   57.6687   50.4035 H         1 LIG    0.4578
     58 C17        53.5086   58.4333   52.1236 C.3       1 LIG    0.0816
     59 H16        54.2645   58.0290   52.8026 H         1 LIG    0.1077
     60 H17        53.7546   59.4663   51.8660 H         1 LIG    0.1077
     61 H18        52.5215   58.3861   52.5925 H         1 LIG    0.1077
     62 C16        53.2496   56.1415   51.2119 C.3       1 LIG    0.0816
     63 H13        52.2586   56.0434   51.6618 H         1 LIG    0.1077
     64 H14        54.0185   55.8113   51.9159 H         1 LIG    0.1077
     65 H15        53.2987   55.5348   50.3027 H         1 LIG    0.1077
@<TRIPOS>BOND
     1    1    2 1
     2    1    3 ar
     3    1    5 ar
     4    3    4 1
     5    3   11 ar
     6    5    6 1
     7    5    7 ar
     8    7    8 1
     9    7    9 ar
    10    9   10 1
    11    9   11 ar
    12   11   12 1
    13   12   13 ar
    14   12   38 ar
    15   13   14 ar
    16   13   36 ar
    17   14   15 1
    18   14   32 ar
    19   15   16 1
    20   15   17 1
    21   17   18 1
    22   17   30 1
    23   17   31 1
    24   18   19 1
    25   18   20 1
    26   18   23 1
    27   20   21 1
    28   21   22 1
    29   21   28 1
    30   21   29 1
    31   22   23 1
    32   22   26 1
    33   22   27 1
    34   23   24 1
    35   23   25 1
    36   32   33 ar
    37   33   34 1
    38   33   35 ar
    39   35   36 ar
    40   36   37 ar
    41   37   38 ar
    42   38   39 1
    43   39   40 ar
    44   39   44 ar
    45   40   41 ar
    46   40   43 1
    47   41   42 1
    48   41   48 ar
    49   44   45 1
    50   44   46 ar
    51   46   47 1
    52   46   48 ar
    53   48   49 1
    54   49   50 1
    55   50   51 1
    56   50   52 1
    57   50   53 1
    58   53   54 1
    59   53   55 1
    60   53   56 1
    61   56   57 1
    62   56   58 1
    63   56   62 1
    64   58   59 1
    65   58   60 1
    66   58   61 1
    67   62   63 1
    68   62   64 1
    69   62   65 1
@<TRIPOS>SUBSTRUCTURE
     1 LIG     1 RESIDUE           4 A     LIG     0 ROOT
