@<TRIPOS>MOLECULE
complex_44_pose3.pdb
69 73 1 0 0
SMALL
AMBER ff14SB


@<TRIPOS>ATOM
      1 C20        53.3492   56.1330   51.2619 C.3       1 LIG    0.0811
      2 H22        52.3511   56.0488   51.6976 H         1 LIG    0.1077
      3 H23        54.1020   55.7953   51.9793 H         1 LIG    0.1077
      4 H24        53.4057   55.5208   50.3561 H         1 LIG    0.1077
      5 N5         53.6199   57.5870   50.9067 N.4       1 LIG   -0.6724
      6 H21        54.5911   57.6431   50.4640 H         1 LIG    0.4578
      7 C21        53.6222   58.4273   52.1675 C.3       1 LIG    0.0811
      8 H25        52.6241   58.4021   52.6161 H         1 LIG    0.1077
      9 H26        53.8931   59.4553   51.9104 H         1 LIG    0.1077
     10 H27        54.3541   58.0156   52.8679 H         1 LIG    0.1077
     11 C19        52.5942   58.1325   49.9192 C.3       1 LIG    0.1008
     12 H19        51.6120   58.0973   50.4008 H         1 LIG    0.1132
     13 H20        52.8550   59.1785   49.7420 H         1 LIG    0.1132
     14 C18        52.5119   57.4011   48.5643 C.3       1 LIG    0.1084
     15 H17        51.9830   58.0118   47.8270 H         1 LIG    0.0802
     16 H18        53.5211   57.1763   48.2047 H         1 LIG    0.0802
     17 O2         51.7751   56.1730   48.7573 O.3       1 LIG   -0.3749
     18 C17        51.9028   55.1148   47.8826 C.ar      1 LIG    0.0851
     19 C22        51.7599   53.8279   48.3799 C.ar      1 LIG   -0.1625
     20 H28        51.4776   53.6761   49.4188 H         1 LIG    0.1410
     21 C23        52.0485   52.7248   47.5782 C.ar      1 LIG   -0.0830
     22 H29        52.0186   51.7579   48.0604 H         1 LIG    0.1600
     23 C16        52.2552   55.2956   46.5487 C.ar      1 LIG   -0.1625
     24 H16        52.3441   56.2915   46.1265 H         1 LIG    0.1410
     25 C15        52.5298   54.1895   45.7471 C.ar      1 LIG   -0.0830
     26 H15        52.8391   54.3793   44.7291 H         1 LIG    0.1600
     27 C12        52.4590   52.8796   46.2443 C.ar      1 LIG   -0.0238
     28 C11        52.9316   51.7765   45.4058 C.ar      1 LIG   -0.0182
     29 C13        53.0198   50.4196   45.6931 C.ar      1 LIG   -0.0032
     30 C10        53.8734   49.8726   44.6746 C.ar      1 LIG   -0.3036
     31 C14        52.2896   49.7116   46.7200 C.ar      1 LIG   -0.0448
     32 C24        50.9135   49.9183   46.8684 C.ar      1 LIG   -0.1070
     33 H30        50.4016   50.6410   46.2391 H         1 LIG    0.1425
     34 C25        50.1834   49.1743   47.7943 C.ar      1 LIG   -0.1365
     35 H31        49.1113   49.3351   47.8989 H         1 LIG    0.1355
     36 C26        50.8183   48.1987   48.5588 C.ar      1 LIG   -0.1250
     37 H32        50.2402   47.5907   49.2517 H         1 LIG    0.1340
     38 C27        52.1854   47.9780   48.4074 C.ar      1 LIG   -0.1365
     39 H33        52.6724   47.1853   48.9717 H         1 LIG    0.1355
     40 C28        52.9176   48.7390   47.4995 C.ar      1 LIG   -0.1070
     41 H34        53.9757   48.5412   47.3649 H         1 LIG    0.1425
     42 N4         53.6410   52.0194   44.2350 N.ar      1 LIG   -0.3292
     43 H14        53.6689   52.8833   43.7078 H         1 LIG    0.3107
     44 C9         54.2294   50.8825   43.8295 C.ar      1 LIG    0.4918
     45 N3         55.0229   50.7025   42.7638 N.ar      1 LIG   -0.7200
     46 C8         55.4563   49.4345   42.5893 C.ar      1 LIG    0.6789
     47 H13        56.1156   49.2535   41.7446 H         1 LIG    0.0601
     48 N2         55.1363   48.3676   43.3414 N.ar      1 LIG   -0.7710
     49 C4         54.3128   48.5956   44.3580 C.ar      1 LIG    0.6962
     50 N1         53.9549   47.4297   44.9292 N.3       1 LIG   -0.8109
     51 H6         54.5722   46.7308   44.5366 H         1 LIG    0.3928
     52 C3         52.5461   47.0313   44.8037 C.3       1 LIG    0.1788
     53 H4         51.9057   47.5333   45.5274 H         1 LIG    0.0642
     54 H5         52.2104   47.3220   43.8145 H         1 LIG    0.0642
     55 C2         52.3314   45.5082   44.9310 C.3       1 LIG   -0.0647
     56 H3         52.9838   44.9963   44.2264 H         1 LIG    0.0537
     57 C1         52.6170   45.0047   46.3652 C.3       1 LIG   -0.0804
     58 H1         53.1786   45.7359   46.9483 H         1 LIG    0.0537
     59 H2         53.2063   44.0848   46.3316 H         1 LIG    0.0537
     60 C7         51.2508   44.7164   47.0178 C.3       1 LIG   -0.0764
     61 H11        51.1361   43.6384   47.1590 H         1 LIG    0.0447
     62 H12        51.1493   45.2016   47.9896 H         1 LIG    0.0447
     63 C6         50.1841   45.2279   46.0412 C.3       1 LIG   -0.1154
     64 H9         49.2722   44.6327   46.1100 H         1 LIG    0.0502
     65 H10        49.9387   46.2699   46.2649 H         1 LIG    0.0502
     66 C5         50.8516   45.1288   44.6665 C.3       1 LIG    0.1451
     67 H7         50.7850   44.0987   44.3147 H         1 LIG    0.0387
     68 O1         50.2098   45.9884   43.7221 O.3       1 LIG   -0.6018
     69 H8         49.7602   45.4241   43.0450 H         1 LIG    0.4030
@<TRIPOS>BOND
     1    1    2 1
     2    1    3 1
     3    1    4 1
     4    1    5 1
     5    5    6 1
     6    5    7 1
     7    5   11 1
     8    7    8 1
     9    7    9 1
    10    7   10 1
    11   11   12 1
    12   11   13 1
    13   11   14 1
    14   14   15 1
    15   14   16 1
    16   14   17 1
    17   17   18 1
    18   18   19 ar
    19   18   23 ar
    20   19   20 1
    21   19   21 ar
    22   21   22 1
    23   21   27 ar
    24   23   24 1
    25   23   25 ar
    26   25   26 1
    27   25   27 ar
    28   27   28 1
    29   28   29 ar
    30   28   42 ar
    31   29   30 ar
    32   29   31 1
    33   30   44 ar
    34   30   49 ar
    35   31   32 ar
    36   31   40 ar
    37   32   33 1
    38   32   34 ar
    39   34   35 1
    40   34   36 ar
    41   36   37 1
    42   36   38 ar
    43   38   39 1
    44   38   40 ar
    45   40   41 1
    46   42   43 1
    47   42   44 ar
    48   44   45 ar
    49   45   46 ar
    50   46   47 1
    51   46   48 ar
    52   48   49 ar
    53   49   50 1
    54   50   51 1
    55   50   52 1
    56   52   53 1
    57   52   54 1
    58   52   55 1
    59   55   56 1
    60   55   57 1
    61   55   66 1
    62   57   58 1
    63   57   59 1
    64   57   60 1
    65   60   61 1
    66   60   62 1
    67   60   63 1
    68   63   64 1
    69   63   65 1
    70   63   66 1
    71   66   67 1
    72   66   68 1
    73   68   69 1
@<TRIPOS>SUBSTRUCTURE
     1 LIG     1 RESIDUE           4 A     LIG     0 ROOT
