@<TRIPOS>MOLECULE
complex_38R_pose4.pdb
65 69 1 0 0
SMALL
AMBER ff14SB


@<TRIPOS>ATOM
      1 C26        51.8566   47.9672   48.4412 C.ar      1 LIG   -0.1370
      2 H30        52.2466   47.1780   49.0701 H         1 LIG    0.1410
      3 C27        52.7158   48.6115   47.5215 C.ar      1 LIG   -0.1070
      4 H31        53.7538   48.3086   47.4746 H         1 LIG    0.1465
      5 C25        50.5246   48.3301   48.4991 C.ar      1 LIG   -0.1200
      6 H29        49.8535   47.8229   49.2028 H         1 LIG    0.1390
      7 C24        50.0187   49.3103   47.6583 C.ar      1 LIG   -0.1370
      8 H28        48.9657   49.5892   47.7062 H         1 LIG    0.1410
      9 C23        50.8598   49.9336   46.7326 C.ar      1 LIG   -0.1070
     10 H27        50.4529   50.6718   46.0537 H         1 LIG    0.1465
     11 C3         52.2238   49.5897   46.6757 C.ar      1 LIG   -0.0608
     12 C2         53.0810   50.2150   45.6970 C.ar      1 LIG    0.0118
     13 C1         53.9902   49.6123   44.7620 C.ar      1 LIG   -0.3296
     14 C6         54.4083   48.3384   44.4788 C.ar      1 LIG    0.7012
     15 N1         54.0213   47.1812   45.0544 N.3       1 LIG   -0.8129
     16 H1         54.6514   46.4764   44.6983 H         1 LIG    0.4038
     17 C7         52.6203   46.7922   44.8550 C.3       1 LIG    0.1798
     18 C8         52.3314   45.3001   45.0726 C.3       1 LIG    0.0054
     19 H2         53.0225   44.7154   44.4645 H         1 LIG    0.0817
     20 S1         50.6385   44.9592   44.4882 S.3       1 LIG   -0.3062
     21 C22        50.0442   44.7307   46.1830 C.3       1 LIG   -0.0023
     22 C21        51.1981   44.1226   46.9820 C.3       1 LIG   -0.0834
     23 C20        52.4801   44.8607   46.5485 C.3       1 LIG   -0.0844
     24 H21        53.3491   44.2098   46.6644 H         1 LIG    0.0622
     25 H22        52.6330   45.7256   47.1927 H         1 LIG    0.0622
     26 H23        51.0189   44.2062   48.0550 H         1 LIG    0.0582
     27 H24        51.2832   43.0606   46.7387 H         1 LIG    0.0582
     28 H25        49.7841   45.7096   46.5982 H         1 LIG    0.0727
     29 H26        49.1622   44.0837   46.2007 H         1 LIG    0.0727
     30 H3         52.3515   46.9925   43.8210 H         1 LIG    0.0647
     31 H4         51.9412   47.3620   45.4891 H         1 LIG    0.0647
     32 N2         55.2705   48.0778   43.4918 N.ar      1 LIG   -0.7580
     33 C9         55.6535   49.1210   42.7452 C.ar      1 LIG    0.6839
     34 H5         56.3357   48.9142   41.9242 H         1 LIG    0.0701
     35 N3         55.2714   50.4109   42.9075 N.ar      1 LIG   -0.6860
     36 C10        54.4543   50.6106   43.9314 C.ar      1 LIG    0.5647
     37 O1         53.9301   51.8345   44.2616 O.2       1 LIG   -0.2184
     38 C4         53.1140   51.5701   45.3484 C.ar      1 LIG    0.0038
     39 C5         52.6028   52.6999   46.1077 C.ar      1 LIG   -0.0088
     40 C19        52.1055   52.6185   47.4345 C.ar      1 LIG   -0.0845
     41 C18        51.7074   53.7643   48.1168 C.ar      1 LIG   -0.1500
     42 H19        51.3252   53.6660   49.1307 H         1 LIG    0.1405
     43 H20        52.0745   51.6863   47.9753 H         1 LIG    0.1695
     44 C11        52.6978   53.9600   45.5340 C.ar      1 LIG   -0.0845
     45 H6         53.0890   54.0803   44.5301 H         1 LIG    0.1695
     46 C12        52.3056   55.1248   46.2323 C.ar      1 LIG   -0.1500
     47 H7         52.3806   56.0900   45.7516 H         1 LIG    0.1405
     48 C13        51.8274   55.0084   47.5182 C.ar      1 LIG    0.0541
     49 O2         51.5022   56.1542   48.2234 O.3       1 LIG   -0.3559
     50 C14        52.5651   56.9961   48.7278 C.3       1 LIG    0.1054
     51 H8         52.1530   57.9861   48.9430 H         1 LIG    0.0957
     52 H9         53.3622   57.0914   47.9850 H         1 LIG    0.0957
     53 C15        53.0959   56.3508   50.0198 C.3       1 LIG    0.0698
     54 H10        53.8088   57.0107   50.5281 H         1 LIG    0.1092
     55 H11        53.6160   55.4269   49.7526 H         1 LIG    0.1092
     56 N4         51.9738   55.9795   50.9755 N.4       1 LIG   -0.6764
     57 H12        51.2329   55.5296   50.3802 H         1 LIG    0.4708
     58 C17        52.4586   54.9882   52.0183 C.3       1 LIG    0.0831
     59 H16        51.6425   54.7620   52.7081 H         1 LIG    0.1049
     60 H17        52.7798   54.0684   51.5211 H         1 LIG    0.1049
     61 H18        53.3025   55.4221   52.5635 H         1 LIG    0.1049
     62 C16        51.3786   57.2103   51.6367 C.3       1 LIG    0.0831
     63 H13        52.1604   57.7262   52.2020 H         1 LIG    0.1049
     64 H14        50.5715   56.9020   52.3075 H         1 LIG    0.1049
     65 H15        50.9757   57.8725   50.8638 H         1 LIG    0.1049
@<TRIPOS>BOND
     1    1    2 1
     2    1    3 ar
     3    1    5 ar
     4    3    4 1
     5    3   11 ar
     6    5    6 1
     7    5    7 ar
     8    7    8 1
     9    7    9 ar
    10    9   10 1
    11    9   11 ar
    12   11   12 1
    13   12   13 ar
    14   12   38 ar
    15   13   14 ar
    16   13   36 ar
    17   14   15 1
    18   14   32 ar
    19   15   16 1
    20   15   17 1
    21   17   18 1
    22   17   30 1
    23   17   31 1
    24   18   19 1
    25   18   20 1
    26   18   23 1
    27   20   21 1
    28   21   22 1
    29   21   28 1
    30   21   29 1
    31   22   23 1
    32   22   26 1
    33   22   27 1
    34   23   24 1
    35   23   25 1
    36   32   33 ar
    37   33   34 1
    38   33   35 ar
    39   35   36 ar
    40   36   37 ar
    41   37   38 ar
    42   38   39 1
    43   39   40 ar
    44   39   44 ar
    45   40   41 ar
    46   40   43 1
    47   41   42 1
    48   41   48 ar
    49   44   45 1
    50   44   46 ar
    51   46   47 1
    52   46   48 ar
    53   48   49 1
    54   49   50 1
    55   50   51 1
    56   50   52 1
    57   50   53 1
    58   53   54 1
    59   53   55 1
    60   53   56 1
    61   56   57 1
    62   56   58 1
    63   56   62 1
    64   58   59 1
    65   58   60 1
    66   58   61 1
    67   62   63 1
    68   62   64 1
    69   62   65 1
@<TRIPOS>SUBSTRUCTURE
     1 LIG     1 RESIDUE           4 A     LIG     0 ROOT
