@<TRIPOS>MOLECULE
complex_39_pose3.pdb
63 67 1 0 0
SMALL
AMBER ff14SB


@<TRIPOS>ATOM
      1 C25        52.1767   47.9583   48.1361 C.ar      1 LIG   -0.1320
      2 H28        52.6116   47.1513   48.7233 H         1 LIG    0.1440
      3 C26        52.9919   48.7413   47.3154 C.ar      1 LIG   -0.1165
      4 H29        54.0599   48.5514   47.3007 H         1 LIG    0.1470
      5 C24        50.8097   48.2062   48.1917 C.ar      1 LIG   -0.1270
      6 H27        50.1695   47.5972   48.8305 H         1 LIG    0.1410
      7 C23        50.2558   49.2281   47.4245 C.ar      1 LIG   -0.1320
      8 H26        49.1858   49.4231   47.4722 H         1 LIG    0.1440
      9 C22        51.0680   49.9922   46.5898 C.ar      1 LIG   -0.1165
     10 H25        50.6202   50.7641   45.9696 H         1 LIG    0.1470
     11 C3         52.4491   49.7593   46.5322 C.ar      1 LIG   -0.0638
     12 C2         53.2893   50.5123   45.6264 C.ar      1 LIG    0.0108
     13 C1         54.1556   50.0003   44.6067 C.ar      1 LIG   -0.4056
     14 C6         54.5478   48.7423   44.2198 C.ar      1 LIG    0.7652
     15 N1         54.1417   47.6243   44.8517 N.pl3     1 LIG   -0.8419
     16 H1         53.3195   47.7293   45.4335 H         1 LIG    0.4618
     17 C7         54.3979   46.2623   44.3348 C.3       1 LIG    0.2088
     18 C8         53.3778   45.2273   44.8655 C.3       1 LIG    0.3219
     19 H2         53.5960   44.2113   44.4996 H         1 LIG    0.0747
     20 O2         52.0299   45.5762   44.4671 O.3       1 LIG   -0.4406
     21 C21        51.1546   45.4182   45.6059 C.3       1 LIG    0.1014
     22 C20        52.0423   44.7922   46.6881 C.3       1 LIG    0.1014
     23 O4         53.3704   45.1983   46.3075 O.3       1 LIG   -0.4406
     24 H21        51.7880   45.1602   47.6831 H         1 LIG    0.0652
     25 H22        51.9714   43.7012   46.6601 H         1 LIG    0.0652
     26 H23        50.7954   46.3991   45.9247 H         1 LIG    0.0652
     27 H24        50.3117   44.7681   45.3556 H         1 LIG    0.0652
     28 H3         55.4028   45.9434   44.6211 H         1 LIG    0.0787
     29 H4         54.3432   46.2493   43.2418 H         1 LIG    0.0787
     30 N2         55.3151   48.5544   43.1490 N.ar      1 LIG   -0.7820
     31 C9         55.6293   49.6424   42.4351 C.ar      1 LIG    0.7029
     32 H5         56.2175   49.4764   41.5403 H         1 LIG    0.0631
     33 N3         55.2641   50.9094   42.7020 N.ar      1 LIG   -0.7270
     34 C10        54.5408   51.0383   43.8148 C.ar      1 LIG    0.5917
     35 O1         54.0296   52.2333   44.2486 O.2       1 LIG   -0.2264
     36 C4         53.2563   51.8763   45.3444 C.ar      1 LIG   -0.0052
     37 C5         52.6250   52.9433   46.1112 C.ar      1 LIG   -0.0198
     38 C19        52.0486   52.7822   47.3820 C.ar      1 LIG   -0.0760
     39 C18        51.4154   53.8472   48.0208 C.ar      1 LIG   -0.1720
     40 H19        50.9491   53.6892   48.9927 H         1 LIG    0.1320
     41 H20        52.0915   51.8373   47.9070 H         1 LIG    0.1650
     42 C11        52.6301   54.2313   45.5662 C.ar      1 LIG   -0.0760
     43 H6         53.1074   54.4083   44.6103 H         1 LIG    0.1650
     44 C12        51.9928   55.3012   46.2010 C.ar      1 LIG   -0.1720
     45 H7         51.9789   56.2672   45.7149 H         1 LIG    0.1320
     46 C13        51.3525   55.0982   47.4188 C.ar      1 LIG    0.0791
     47 O3         50.6303   56.0942   48.0496 O.3       1 LIG   -0.2989
     48 C14        49.9894   57.1711   47.3274 C.3       1 LIG    0.1164
     49 H8         49.0852   57.4701   47.8691 H         1 LIG    0.0817
     50 H9         49.7117   56.8231   46.3293 H         1 LIG    0.0817
     51 C15        50.9734   58.3572   47.2676 C.3       1 LIG    0.0528
     52 H10        51.9894   57.9552   47.2329 H         1 LIG    0.1192
     53 H11        50.8741   58.9422   48.1866 H         1 LIG    0.1192
     54 N4         50.8177   59.3022   46.0826 N.4       1 LIG   -0.6744
     55 H12        50.9899   58.7622   45.1866 H         1 LIG    0.4508
     56 C17        49.4166   59.8941   46.0471 C.3       1 LIG    0.0821
     57 H16        49.3388   60.6041   45.2211 H         1 LIG    0.1070
     58 H17        48.6877   59.0900   45.9129 H         1 LIG    0.1070
     59 H18        49.2123   60.4011   46.9961 H         1 LIG    0.1070
     60 C16        51.8376   60.4212   46.1778 C.3       1 LIG    0.0821
     61 H13        51.6573   60.9862   47.0968 H         1 LIG    0.1070
     62 H14        51.7288   61.0782   45.3098 H         1 LIG    0.1070
     63 H15        52.8426   59.9903   46.1951 H         1 LIG    0.1070
@<TRIPOS>BOND
     1    1    2 1
     2    1    3 ar
     3    1    5 ar
     4    3    4 1
     5    3   11 ar
     6    5    6 1
     7    5    7 ar
     8    7    8 1
     9    7    9 ar
    10    9   10 1
    11    9   11 ar
    12   11   12 1
    13   12   13 ar
    14   12   36 ar
    15   13   14 ar
    16   13   34 ar
    17   14   15 1
    18   14   30 ar
    19   15   16 1
    20   15   17 1
    21   17   18 1
    22   17   28 1
    23   17   29 1
    24   18   19 1
    25   18   20 1
    26   18   23 1
    27   20   21 1
    28   21   22 1
    29   21   26 1
    30   21   27 1
    31   22   23 1
    32   22   24 1
    33   22   25 1
    34   30   31 ar
    35   31   32 1
    36   31   33 ar
    37   33   34 ar
    38   34   35 ar
    39   35   36 ar
    40   36   37 1
    41   37   38 ar
    42   37   42 ar
    43   38   39 ar
    44   38   41 1
    45   39   40 1
    46   39   46 ar
    47   42   43 1
    48   42   44 ar
    49   44   45 1
    50   44   46 ar
    51   46   47 1
    52   47   48 1
    53   48   49 1
    54   48   50 1
    55   48   51 1
    56   51   52 1
    57   51   53 1
    58   51   54 1
    59   54   55 1
    60   54   56 1
    61   54   60 1
    62   56   57 1
    63   56   58 1
    64   56   59 1
    65   60   61 1
    66   60   62 1
    67   60   63 1
@<TRIPOS>SUBSTRUCTURE
     1 LIG     1 RESIDUE           4 A     LIG     0 ROOT
