@<TRIPOS>MOLECULE
complex_35_pose1.pdb
64 68 1 0 0
SMALL
AMBER ff14SB


@<TRIPOS>ATOM
      1 C25        52.0410   48.0610   48.2210 C.ar      1 LIG   -0.0617
      2 H29        52.5000   47.2690   48.8110 H         1 LIG    0.0623
      3 C26        52.8140   48.8090   47.3340 C.ar      1 LIG   -0.0543
      4 H30        53.8820   48.6190   47.2690 H         1 LIG    0.0629
      5 C24        50.6780   48.3140   48.3410 C.ar      1 LIG   -0.0622
      6 H28        50.0720   47.7290   49.0300 H         1 LIG    0.0623
      7 C23        50.0830   49.3070   47.5650 C.ar      1 LIG   -0.0617
      8 H27        49.0180   49.5040   47.6570 H         1 LIG    0.0623
      9 C22        50.8540   50.0340   46.6600 C.ar      1 LIG   -0.0543
     10 H26        50.3770   50.7820   46.0330 H         1 LIG    0.0629
     11 C3         52.2270   49.7960   46.5390 C.ar      1 LIG   -0.0156
     12 C2         53.0100   50.5430   45.5740 C.ar      1 LIG    0.0179
     13 C1         53.8850   50.0130   44.5650 C.ar      1 LIG    0.0649
     14 C6         54.3220   48.7450   44.2370 C.ar      1 LIG    0.1307
     15 N2         53.8880   47.6390   44.8700 N.pl3     1 LIG   -0.3268
     16 H2         53.0510   47.7710   45.4230 H         1 LIG    0.1481
     17 C7         54.0890   46.2820   44.3310 C.3       1 LIG    0.0309
     18 C8         53.0620   45.2970   44.9230 C.3       1 LIG    0.0657
     19 H3         53.2660   44.2910   44.5240 H         1 LIG    0.0549
     20 S1         53.1720   45.1840   46.7380 S.3       1 LIG   -0.1451
     21 C21        51.5060   44.4860   46.9320 C.3       1 LIG    0.0036
     22 C20        50.5340   45.2770   46.0520 C.3       1 LIG    0.0036
     23 S2         51.3350   45.7160   44.4740 S.3       1 LIG   -0.1451
     24 H22        49.6220   44.7010   45.8730 H         1 LIG    0.0389
     25 H23        50.2620   46.2040   46.5640 H         1 LIG    0.0389
     26 H24        51.5270   43.4410   46.6150 H         1 LIG    0.0389
     27 H25        51.1980   44.5280   47.9800 H         1 LIG    0.0389
     28 H4         55.1010   45.9360   44.5650 H         1 LIG    0.0487
     29 H5         53.9800   46.2860   43.2440 H         1 LIG    0.0487
     30 N3         55.1580   48.5400   43.2210 N.ar      1 LIG   -0.2210
     31 C9         55.4920   49.6150   42.4960 C.ar      1 LIG    0.1194
     32 H6         56.1560   49.4440   41.6540 H         1 LIG    0.1064
     33 N4         55.0560   50.8760   42.6880 N.ar      1 LIG   -0.2206
     34 C10        54.2530   51.0320   43.7450 C.ar      1 LIG    0.1349
     35 N1         53.6460   52.1500   44.1590 N.ar      1 LIG   -0.2979
     36 H1         53.6560   53.0140   43.6350 H         1 LIG    0.1544
     37 C4         52.9340   51.9120   45.3280 C.ar      1 LIG    0.0475
     38 C5         52.4200   52.9520   46.2170 C.ar      1 LIG   -0.0034
     39 C19        52.0230   52.7480   47.5470 C.ar      1 LIG   -0.0505
     40 C18        51.7310   53.8250   48.3850 C.ar      1 LIG   -0.0311
     41 H20        51.4610   53.6400   49.4220 H         1 LIG    0.0651
     42 H21        52.0160   51.7650   48.0000 H         1 LIG    0.0631
     43 C11        52.4680   54.2760   45.7580 C.ar      1 LIG   -0.0505
     44 H7         52.7680   54.4950   44.7410 H         1 LIG    0.0631
     45 C12        52.1880   55.3550   46.5940 C.ar      1 LIG   -0.0311
     46 H8         52.2600   56.3640   46.2010 H         1 LIG    0.0651
     47 C13        51.8560   55.1290   47.9280 C.ar      1 LIG    0.0752
     48 O1         51.7330   56.1590   48.8370 O.3       1 LIG   -0.3407
     49 C14        52.4480   57.4040   48.6670 C.3       1 LIG    0.0921
     50 H9         51.9050   58.0220   47.9450 H         1 LIG    0.0629
     51 H10        53.4570   57.2010   48.2950 H         1 LIG    0.0629
     52 C15        52.5330   58.1160   50.0320 C.3       1 LIG   -0.0104
     53 H11        51.5560   58.0660   50.5200 H         1 LIG    0.0839
     54 H12        52.7820   59.1680   49.8670 H         1 LIG    0.0839
     55 N5         53.5720   57.5670   51.0020 N.4       1 LIG    0.2441
     56 H13        54.5370   57.6150   50.5450 H         1 LIG    0.1996
     57 C17        53.6040   58.4120   52.2610 C.3       1 LIG   -0.0458
     58 H17        53.8760   59.4360   51.9960 H         1 LIG    0.0777
     59 H18        54.3460   57.9960   52.9480 H         1 LIG    0.0777
     60 H19        52.6150   58.3940   52.7300 H         1 LIG    0.0777
     61 C16        53.2960   56.1170   51.3650 C.3       1 LIG   -0.0458
     62 H14        52.3020   56.0410   51.8110 H         1 LIG    0.0777
     63 H15        54.0540   55.7800   52.0760 H         1 LIG    0.0777
     64 H16        53.3410   55.5020   50.4610 H         1 LIG    0.0777
@<TRIPOS>BOND
     1   13   12 ar
     2   13   14 ar
     3   13   34 ar
     4   34   33 ar
     5   34   35 ar
     6   43   38 ar
     7   43   44 1
     8   43   45 ar
     9   45   46 1
    10   45   47 ar
    11   47   40 ar
    12   47   48 1
    13   49   48 1
    14   49   50 1
    15   49   51 1
    16   49   52 1
    17   52   53 1
    18   52   54 1
    19   52   55 1
    20   61   55 1
    21   61   62 1
    22   61   63 1
    23   61   64 1
    24   57   55 1
    25   57   58 1
    26   57   59 1
    27   57   60 1
    28   40   39 ar
    29   40   41 1
    30   39   38 ar
    31   39   42 1
    32   12   37 ar
    33   12   11 1
    34   22   21 1
    35   22   23 1
    36   22   24 1
    37   22   25 1
    38   21   20 1
    39   21   26 1
    40   21   27 1
    41    9    7 ar
    42    9   10 1
    43    9   11 ar
    44    7    5 ar
    45    7    8 1
    46    5    1 ar
    47    5    6 1
    48    1    2 1
    49    1    3 ar
    50    3    4 1
    51    3   11 ar
    52   37   38 1
    53   37   35 ar
    54   14   15 1
    55   14   30 ar
    56   17   15 1
    57   17   18 1
    58   17   28 1
    59   17   29 1
    60   18   19 1
    61   18   20 1
    62   18   23 1
    63   31   30 ar
    64   31   32 1
    65   31   33 ar
    66   36   35 1
    67   56   55 1
    68   16   15 1
@<TRIPOS>SUBSTRUCTURE
     1 LIG     1 RESIDUE           4 A     LIG     0 ROOT
