@<TRIPOS>MOLECULE
ligand7_3.pdb
50 54 1 0 0
SMALL
AMBER ff14SB


@<TRIPOS>ATOM
      1 C19        52.1660   47.9240   48.0160 C.ar      1 LIG   -0.1335
      2 H15        52.6480   47.1210   48.5710 H         1 LIG    0.1350
      3 C20        52.9160   48.7550   47.1840 C.ar      1 LIG   -0.1215
      4 H16        53.9890   48.6170   47.1220 H         1 LIG    0.1415
      5 C18        50.7930   48.1190   48.1310 C.ar      1 LIG   -0.1260
      6 H14        50.2020   47.4700   48.7760 H         1 LIG    0.1340
      7 C17        50.1730   49.1390   47.4130 C.ar      1 LIG   -0.1335
      8 H13        49.1000   49.2940   47.5120 H         1 LIG    0.1350
      9 C16        50.9220   49.9480   46.5610 C.ar      1 LIG   -0.1215
     10 H12        50.4250   50.7190   45.9780 H         1 LIG    0.1415
     11 C3         52.3030   49.7620   46.4380 C.ar      1 LIG   -0.0358
     12 C2         53.0740   50.5640   45.5080 C.ar      1 LIG   -0.0532
     13 C1         53.9040   50.0770   44.4410 C.ar      1 LIG   -0.3586
     14 C6         54.3000   48.8200   44.0260 C.ar      1 LIG    0.7412
     15 N2         53.9200   47.6850   44.6570 N.pl3     1 LIG   -0.8519
     16 H2         53.1700   47.8160   45.3250 H         1 LIG    0.4408
     17 C7         54.1970   46.3200   44.1580 C.3       1 LIG    0.1918
     18 C8         55.4410   45.6720   44.8270 C.3       1 LIG    0.1121
     19 H3         55.2390   45.4990   45.8850 H         1 LIG    0.0557
     20 O1         55.7340   44.4160   44.1680 O.3       1 LIG   -0.4236
     21 C23        56.4990   44.6900   42.9640 C.3       1 LIG    0.1264
     22 C22        57.3340   45.9300   43.3110 C.3       1 LIG   -0.1064
     23 C21        56.7540   46.4550   44.6300 C.3       1 LIG   -0.1074
     24 H17        56.6210   47.5340   44.6130 H         1 LIG    0.0632
     25 H22        57.4380   46.2450   45.4460 H         1 LIG    0.0632
     26 H18        58.3930   45.6870   43.4150 H         1 LIG    0.0532
     27 H19        57.2200   46.6780   42.5240 H         1 LIG    0.0532
     28 H20        57.1160   43.8320   42.6810 H         1 LIG    0.0462
     29 H21        55.8190   44.9370   42.1470 H         1 LIG    0.0462
     30 H4         54.3250   46.3180   43.0710 H         1 LIG    0.0772
     31 H5         53.3340   45.6820   44.3730 H         1 LIG    0.0772
     32 N3         55.0600   48.6570   42.9420 N.ar      1 LIG   -0.8000
     33 C9         55.3950   49.7630   42.2700 C.ar      1 LIG    0.6829
     34 H6         56.0090   49.6290   41.3860 H         1 LIG    0.0481
     35 N4         55.0020   51.0180   42.5590 N.ar      1 LIG   -0.7420
     36 C10        54.2500   51.1320   43.6580 C.ar      1 LIG    0.5018
     37 N1         53.6660   52.2330   44.1420 N.ar      1 LIG   -0.3242
     38 H1         53.6270   53.1090   43.6400 H         1 LIG    0.3137
     39 C4         52.9720   51.9420   45.3080 C.ar      1 LIG    0.0228
     40 C5         52.3650   52.9360   46.1880 C.ar      1 LIG   -0.0418
     41 C11        52.2950   54.2620   45.7320 C.ar      1 LIG   -0.1130
     42 H7         52.6430   54.5230   44.7400 H         1 LIG    0.1400
     43 C12        51.7700   55.2800   46.5280 C.ar      1 LIG   -0.1295
     44 H8         51.7140   56.2970   46.1430 H         1 LIG    0.1355
     45 C13        51.3150   54.9960   47.8080 C.ar      1 LIG   -0.1220
     46 H9         50.9100   55.7850   48.4380 H         1 LIG    0.1340
     47 C14        51.4030   53.6950   48.2930 C.ar      1 LIG   -0.1295
     48 H10        51.0780   53.4660   49.3070 H         1 LIG    0.1355
     49 C15        51.9340   52.6810   47.4980 C.ar      1 LIG   -0.1130
     50 H11        52.0420   51.7050   47.9530 H         1 LIG    0.1400
@<TRIPOS>BOND
     1    1    2 1
     2    1    3 ar
     3    1    5 ar
     4    3    4 1
     5    3   11 ar
     6    5    6 1
     7    5    7 ar
     8    7    8 1
     9    7    9 ar
    10    9   10 1
    11    9   11 ar
    12   11   12 1
    13   12   13 ar
    14   12   39 ar
    15   13   14 ar
    16   13   36 ar
    17   14   15 1
    18   14   32 ar
    19   15   16 1
    20   15   17 1
    21   17   18 1
    22   17   30 1
    23   17   31 1
    24   18   19 1
    25   18   20 1
    26   18   23 1
    27   20   21 1
    28   21   22 1
    29   21   28 1
    30   21   29 1
    31   22   23 1
    32   22   26 1
    33   22   27 1
    34   23   24 1
    35   23   25 1
    36   32   33 ar
    37   33   34 1
    38   33   35 ar
    39   35   36 ar
    40   36   37 ar
    41   37   38 1
    42   37   39 ar
    43   39   40 1
    44   40   41 ar
    45   40   49 ar
    46   41   42 1
    47   41   43 ar
    48   43   44 1
    49   43   45 ar
    50   45   46 1
    51   45   47 ar
    52   47   48 1
    53   47   49 ar
    54   49   50 1
@<TRIPOS>SUBSTRUCTURE
     1 LIG     1 RESIDUE           4 A     LIG     0 ROOT
