@<TRIPOS>MOLECULE
complex_36_pose1.pdb
63 67 1 0 0
SMALL
AMBER ff14SB


@<TRIPOS>ATOM
      1 C25        51.9922   48.1379   48.1526 C.ar      1 LIG   -0.1330
      2 H28        52.3760   47.3109   48.7508 H         1 LIG    0.1420
      3 C26        52.8415   48.8428   47.3098 C.ar      1 LIG   -0.1125
      4 H29        53.8965   48.5837   47.2811 H         1 LIG    0.1475
      5 C24        50.6422   48.4790   48.2332 C.ar      1 LIG   -0.1240
      6 H27        49.9780   47.9290   48.8961 H         1 LIG    0.1400
      7 C23        50.1465   49.5199   47.4530 C.ar      1 LIG   -0.1330
      8 H26        49.0934   49.7880   47.5216 H         1 LIG    0.1420
      9 C22        50.9947   50.2058   46.5841 C.ar      1 LIG   -0.1125
     10 H25        50.5869   50.9887   45.9500 H         1 LIG    0.1475
     11 C3         52.3517   49.8837   46.5126 C.ar      1 LIG   -0.0668
     12 C2         53.2270   50.5746   45.5827 C.ar      1 LIG    0.0118
     13 C1         54.0763   50.0005   44.5830 C.ar      1 LIG   -0.3996
     14 C6         54.4113   48.7174   44.2192 C.ar      1 LIG    0.7602
     15 N1         53.9181   47.6305   44.8442 N.pl3     1 LIG   -0.8429
     16 H1         53.0990   47.7926   45.4170 H         1 LIG    0.4648
     17 C7         54.0892   46.2645   44.3234 C.3       1 LIG    0.2378
     18 C8         53.0510   45.3016   44.9362 C.3       1 LIG    0.0475
     19 H2         53.2411   44.2875   44.5523 H         1 LIG    0.1147
     20 S1         53.1625   45.2187   46.7502 S.3       1 LIG   -0.2692
     21 C21        51.5134   44.4818   46.9378 C.3       1 LIG   -0.0183
     22 C20        50.5237   45.2488   46.0545 C.3       1 LIG   -0.0183
     23 S2         51.3281   45.7346   44.4896 S.3       1 LIG   -0.2692
     24 H21        49.6357   44.6438   45.8563 H         1 LIG    0.0890
     25 H22        50.2146   46.1598   46.5723 H         1 LIG    0.0890
     26 H23        51.5604   43.4368   46.6209 H         1 LIG    0.0890
     27 H24        51.1981   44.5139   47.9837 H         1 LIG    0.0890
     28 H3         55.0961   45.9014   44.5497 H         1 LIG    0.0772
     29 H4         53.9685   46.2584   43.2373 H         1 LIG    0.0772
     30 N2         55.1986   48.4813   43.1735 N.ar      1 LIG   -0.7810
     31 C9         55.5879   49.5432   42.4545 C.ar      1 LIG    0.7009
     32 H5         56.2011   49.3371   41.5827 H         1 LIG    0.0631
     33 N3         55.2668   50.8293   42.6883 N.ar      1 LIG   -0.7240
     34 C10        54.5245   51.0044   43.7831 C.ar      1 LIG    0.5897
     35 O1         54.0625   52.2304   44.1848 O.2       1 LIG   -0.2264
     36 C4         53.2682   51.9256   45.2836 C.ar      1 LIG   -0.0052
     37 C5         52.6990   53.0427   46.0364 C.ar      1 LIG   -0.0198
     38 C19        52.1316   52.9448   47.3112 C.ar      1 LIG   -0.0755
     39 C18        51.5645   54.0599   47.9320 C.ar      1 LIG   -0.1720
     40 H19        51.1072   53.9520   48.9138 H         1 LIG    0.1320
     41 H20        52.1324   52.0099   47.8623 H         1 LIG    0.1650
     42 C11        52.7692   54.3176   45.4573 C.ar      1 LIG   -0.0755
     43 H6         53.2465   54.4405   44.4914 H         1 LIG    0.1650
     44 C12        52.2031   55.4287   46.0660 C.ar      1 LIG   -0.1720
     45 H7         52.2353   56.3796   45.5479 H         1 LIG    0.1320
     46 C13        51.5647   55.2998   47.2998 C.ar      1 LIG    0.0791
     47 O2         50.9096   56.3509   47.9086 O.3       1 LIG   -0.2989
     48 C14        50.4588   57.5209   47.1873 C.3       1 LIG    0.1164
     49 H8         49.6027   57.9439   47.7200 H         1 LIG    0.0817
     50 H9         50.1471   57.2238   46.1823 H         1 LIG    0.0817
     51 C15        51.6109   58.5468   47.1476 C.3       1 LIG    0.0528
     52 H10        52.5499   58.0008   47.0249 H         1 LIG    0.1192
     53 H11        51.6596   59.0749   48.1055 H         1 LIG    0.1192
     54 N4         51.5383   59.5787   46.0294 N.4       1 LIG   -0.6744
     55 H12        51.5425   59.0646   45.0985 H         1 LIG    0.4508
     56 C17        50.2783   60.4248   46.1200 C.3       1 LIG    0.0816
     57 H16        49.4033   59.7758   46.0348 H         1 LIG    0.1070
     58 H17        50.2775   61.1537   45.3039 H         1 LIG    0.1070
     59 H18        50.2660   60.9469   47.0820 H         1 LIG    0.1070
     60 C16        52.7593   60.4827   46.0807 C.3       1 LIG    0.0816
     61 H13        53.6633   59.8736   45.9980 H         1 LIG    0.1070
     62 H14        52.7630   61.0238   47.0317 H         1 LIG    0.1070
     63 H15        52.7145   61.1946   45.2496 H         1 LIG    0.1070
@<TRIPOS>BOND
     1    1    2 1
     2    1    3 ar
     3    1    5 ar
     4    3    4 1
     5    3   11 ar
     6    5    6 1
     7    5    7 ar
     8    7    8 1
     9    7    9 ar
    10    9   10 1
    11    9   11 ar
    12   11   12 1
    13   12   13 ar
    14   12   36 ar
    15   13   14 ar
    16   13   34 ar
    17   14   15 1
    18   14   30 ar
    19   15   16 1
    20   15   17 1
    21   17   18 1
    22   17   28 1
    23   17   29 1
    24   18   19 1
    25   18   20 1
    26   18   23 1
    27   20   21 1
    28   21   22 1
    29   21   26 1
    30   21   27 1
    31   22   23 1
    32   22   24 1
    33   22   25 1
    34   30   31 ar
    35   31   32 1
    36   31   33 ar
    37   33   34 ar
    38   34   35 ar
    39   35   36 ar
    40   36   37 1
    41   37   38 ar
    42   37   42 ar
    43   38   39 ar
    44   38   41 1
    45   39   40 1
    46   39   46 ar
    47   42   43 1
    48   42   44 ar
    49   44   45 1
    50   44   46 ar
    51   46   47 1
    52   47   48 1
    53   48   49 1
    54   48   50 1
    55   48   51 1
    56   51   52 1
    57   51   53 1
    58   51   54 1
    59   54   55 1
    60   54   56 1
    61   54   60 1
    62   56   57 1
    63   56   58 1
    64   56   59 1
    65   60   61 1
    66   60   62 1
    67   60   63 1
@<TRIPOS>SUBSTRUCTURE
     1 LIG     1 RESIDUE           4 A     LIG     0 ROOT
