@<TRIPOS>MOLECULE
ligand4_5.pdb
49 53 1 0 0
SMALL
AMBER ff14SB


@<TRIPOS>ATOM
      1 C18        52.3770   48.7180   48.1210 C.ar      1 LIG   -0.1245
      2 H14        52.8660   48.0570   48.8350 H         1 LIG    0.1430
      3 C19        53.1310   49.5640   47.3110 C.ar      1 LIG   -0.1220
      4 H15        54.2120   49.5780   47.4030 H         1 LIG    0.1510
      5 C17        50.9890   48.7030   48.0050 C.ar      1 LIG   -0.1150
      6 H13        50.3950   48.0450   48.6350 H         1 LIG    0.1420
      7 C16        50.3590   49.5310   47.0730 C.ar      1 LIG   -0.1245
      8 H12        49.2740   49.5200   47.0000 H         1 LIG    0.1430
      9 C15        51.1130   50.3450   46.2350 C.ar      1 LIG   -0.1220
     10 H11        50.6160   50.9740   45.5000 H         1 LIG    0.1510
     11 C2         52.5060   50.3550   46.3480 C.ar      1 LIG   -0.0132
     12 N1         53.2800   51.0710   45.4880 N.ar      1 LIG   -0.0655
     13 C1         53.9500   50.5890   44.4270 C.ar      1 LIG   -0.3399
     14 C5         54.2690   49.3090   44.0200 C.ar      1 LIG    0.7022
     15 N3         53.9100   48.2050   44.7180 N.pl3     1 LIG   -0.8389
     16 H1         53.2390   48.3620   45.4600 H         1 LIG    0.4198
     17 C6         54.1400   46.8200   44.2470 C.3       1 LIG    0.1818
     18 C7         55.4150   46.1750   44.8580 C.3       1 LIG    0.1111
     19 H2         55.2650   46.0090   45.9260 H         1 LIG    0.0487
     20 O1         55.6670   44.9130   44.1930 O.3       1 LIG   -0.4266
     21 C22        56.3780   45.1760   42.9550 C.3       1 LIG    0.1274
     22 C21        57.2580   46.3930   43.2700 C.3       1 LIG   -0.1064
     23 C20        56.7230   46.9490   44.5950 C.3       1 LIG   -0.1074
     24 H16        56.5920   48.0280   44.5580 H         1 LIG    0.0652
     25 H21        57.4360   46.7570   45.3910 H         1 LIG    0.0652
     26 H17        58.3100   46.1140   43.3570 H         1 LIG    0.0537
     27 H18        57.1560   47.1350   42.4770 H         1 LIG    0.0537
     28 H19        56.9580   44.3060   42.6350 H         1 LIG    0.0462
     29 H20        55.6650   45.4500   42.1760 H         1 LIG    0.0462
     30 H3         54.2020   46.7870   43.1550 H         1 LIG    0.0802
     31 H4         53.2840   46.2010   44.5320 H         1 LIG    0.0802
     32 N4         54.9780   49.1100   42.9060 N.ar      1 LIG   -0.7680
     33 C8         55.3470   50.2010   42.2270 C.ar      1 LIG    0.6489
     34 H5         55.9210   50.0400   41.3200 H         1 LIG    0.0521
     35 N5         55.0580   51.4760   42.5460 N.ar      1 LIG   -0.6650
     36 C9         54.3450   51.6350   43.6620 C.ar      1 LIG    0.6203
     37 N2         53.9330   52.7900   44.1690 N.ar      1 LIG   -0.3810
     38 C3         53.2320   52.4550   45.2840 C.ar      1 LIG    0.1018
     39 C4         52.5790   53.4390   46.1460 C.ar      1 LIG   -0.0528
     40 C10        52.5150   54.7650   45.6810 C.ar      1 LIG   -0.0915
     41 H6         52.9190   55.0190   44.7040 H         1 LIG    0.1475
     42 C11        51.9200   55.7720   46.4360 C.ar      1 LIG   -0.1370
     43 H7         51.8650   56.7860   46.0460 H         1 LIG    0.1375
     44 C12        51.3820   55.4810   47.6850 C.ar      1 LIG   -0.1110
     45 H8         50.9190   56.2650   48.2820 H         1 LIG    0.1350
     46 C13        51.4440   54.1820   48.1710 C.ar      1 LIG   -0.1370
     47 H9         51.0420   53.9440   49.1550 H         1 LIG    0.1375
     48 C14        52.0370   53.1710   47.4120 C.ar      1 LIG   -0.0915
     49 H10        52.0840   52.1910   47.8690 H         1 LIG    0.1475
@<TRIPOS>BOND
     1    1    2 1
     2    1    3 ar
     3    1    5 ar
     4    3    4 1
     5    3   11 ar
     6    5    6 1
     7    5    7 ar
     8    7    8 1
     9    7    9 ar
    10    9   10 1
    11    9   11 ar
    12   11   12 1
    13   12   13 ar
    14   12   38 ar
    15   13   14 ar
    16   13   36 ar
    17   14   15 1
    18   14   32 ar
    19   15   16 1
    20   15   17 1
    21   17   18 1
    22   17   30 1
    23   17   31 1
    24   18   19 1
    25   18   20 1
    26   18   23 1
    27   20   21 1
    28   21   22 1
    29   21   28 1
    30   21   29 1
    31   22   23 1
    32   22   26 1
    33   22   27 1
    34   23   24 1
    35   23   25 1
    36   32   33 ar
    37   33   34 1
    38   33   35 ar
    39   35   36 ar
    40   36   37 ar
    41   37   38 ar
    42   38   39 1
    43   39   40 ar
    44   39   48 ar
    45   40   41 1
    46   40   42 ar
    47   42   43 1
    48   42   44 ar
    49   44   45 1
    50   44   46 ar
    51   46   47 1
    52   46   48 ar
    53   48   49 1
@<TRIPOS>SUBSTRUCTURE
     1 LIG     1 RESIDUE           4 A     LIG     0 ROOT
