@<TRIPOS>MOLECULE
ligand2_3.pdb
49 53 1 0 0
SMALL
AMBER ff14SB


@<TRIPOS>ATOM
      1 C19        51.9550   47.9050   47.9370 C.ar      1 LIG   -0.1330
      2 H14        52.3730   47.0520   48.4710 H         1 LIG    0.1375
      3 C20        52.7660   48.6850   47.1150 C.ar      1 LIG   -0.1190
      4 H15        53.8230   48.4560   47.0440 H         1 LIG    0.1440
      5 C18        50.6060   48.2170   48.0780 C.ar      1 LIG   -0.1230
      6 H13        49.9700   47.6100   48.7200 H         1 LIG    0.1370
      7 C17        50.0700   49.3030   47.3920 C.ar      1 LIG   -0.1330
      8 H12        49.0180   49.5530   47.5150 H         1 LIG    0.1375
      9 C16        50.8770   50.0620   46.5450 C.ar      1 LIG   -0.1190
     10 H11        50.4390   50.8870   45.9880 H         1 LIG    0.1440
     11 C3         52.2360   49.7650   46.4030 C.ar      1 LIG   -0.0468
     12 C2         53.0720   50.5340   45.5030 C.ar      1 LIG   -0.0472
     13 C1         53.9170   50.0520   44.4490 C.ar      1 LIG   -0.3836
     14 C6         54.2710   48.8040   43.9870 C.ar      1 LIG    0.7422
     15 N1         53.8430   47.6610   44.5710 N.pl3     1 LIG   -0.8489
     16 H1         53.0620   47.7790   45.2040 H         1 LIG    0.4438
     17 C7         54.1660   46.3020   44.0800 C.3       1 LIG    0.1908
     18 C8         55.3950   45.6750   44.7970 C.3       1 LIG    0.1121
     19 H2         55.1520   45.4880   45.8450 H         1 LIG    0.0557
     20 O2         55.7430   44.4310   44.1400 O.3       1 LIG   -0.4236
     21 C23        56.5440   44.7330   42.9650 C.3       1 LIG    0.1264
     22 C22        57.3250   45.9980   43.3460 C.3       1 LIG   -0.1064
     23 C21        56.7000   46.4830   44.6590 C.3       1 LIG   -0.1074
     24 H16        56.5520   47.5600   44.6660 H         1 LIG    0.0632
     25 H21        57.3610   46.2590   45.4910 H         1 LIG    0.0632
     26 H17        58.3910   45.7940   43.4660 H         1 LIG    0.0542
     27 H18        57.1980   46.7510   42.5660 H         1 LIG    0.0542
     28 H19        57.1980   43.8970   42.7040 H         1 LIG    0.0472
     29 H20        55.8880   44.9580   42.1220 H         1 LIG    0.0472
     30 H3         54.3370   46.3060   42.9990 H         1 LIG    0.0787
     31 H4         53.3080   45.6470   44.2580 H         1 LIG    0.0787
     32 N2         55.0360   48.6630   42.9060 N.ar      1 LIG   -0.7850
     33 C9         55.4210   49.7820   42.2810 C.ar      1 LIG    0.6829
     34 H5         56.0320   49.6560   41.3940 H         1 LIG    0.0561
     35 N3         55.0930   51.0390   42.6230 N.ar      1 LIG   -0.7100
     36 C10        54.3380   51.1240   43.7220 C.ar      1 LIG    0.5767
     37 O1         53.8490   52.3070   44.2120 O.2       1 LIG   -0.2134
     38 C4         53.0690   51.9070   45.2870 C.ar      1 LIG    0.0528
     39 C5         52.4920   52.9490   46.1320 C.ar      1 LIG   -0.0438
     40 C11        52.4610   54.2620   45.6390 C.ar      1 LIG   -0.1015
     41 H6         52.8310   54.4760   44.6410 H         1 LIG    0.1485
     42 C12        51.9420   55.3100   46.3980 C.ar      1 LIG   -0.1350
     43 H7         51.9090   56.3170   45.9870 H         1 LIG    0.1360
     44 C13        51.4580   55.0690   47.6790 C.ar      1 LIG   -0.1160
     45 H8         51.0580   55.8840   48.2790 H         1 LIG    0.1340
     46 C14        51.5080   53.7800   48.1980 C.ar      1 LIG   -0.1350
     47 H9         51.1600   53.5840   49.2110 H         1 LIG    0.1360
     48 C15        52.0280   52.7350   47.4370 C.ar      1 LIG   -0.1015
     49 H10        52.1020   51.7640   47.9120 H         1 LIG    0.1485
@<TRIPOS>BOND
     1    1    2 1
     2    1    3 ar
     3    1    5 ar
     4    3    4 1
     5    3   11 ar
     6    5    6 1
     7    5    7 ar
     8    7    8 1
     9    7    9 ar
    10    9   10 1
    11    9   11 ar
    12   11   12 1
    13   12   13 ar
    14   12   38 ar
    15   13   14 ar
    16   13   36 ar
    17   14   15 1
    18   14   32 ar
    19   15   16 1
    20   15   17 1
    21   17   18 1
    22   17   30 1
    23   17   31 1
    24   18   19 1
    25   18   20 1
    26   18   23 1
    27   20   21 1
    28   21   22 1
    29   21   28 1
    30   21   29 1
    31   22   23 1
    32   22   26 1
    33   22   27 1
    34   23   24 1
    35   23   25 1
    36   32   33 ar
    37   33   34 1
    38   33   35 ar
    39   35   36 ar
    40   36   37 ar
    41   37   38 ar
    42   38   39 1
    43   39   40 ar
    44   39   48 ar
    45   40   41 1
    46   40   42 ar
    47   42   43 1
    48   42   44 ar
    49   44   45 1
    50   44   46 ar
    51   46   47 1
    52   46   48 ar
    53   48   49 1
@<TRIPOS>SUBSTRUCTURE
     1 LIG     1 RESIDUE           4 A     LIG     0 ROOT
