@<TRIPOS>MOLECULE
complex_16_pose4.pdb
66 70 1 0 0
SMALL
AMBER ff14SB


@<TRIPOS>ATOM
      1 C23        52.1260   47.7320   47.9570 C.ar      1 LIG   -0.0617
      2 H25        52.6190   46.9360   48.5090 H         1 LIG    0.0623
      3 C24        52.8810   48.5710   47.1150 C.ar      1 LIG   -0.0543
      4 H26        53.9510   48.4310   47.0550 H         1 LIG    0.0629
      5 C22        50.7630   47.9230   48.0660 C.ar      1 LIG   -0.0622
      6 H24        50.1700   47.2690   48.7140 H         1 LIG    0.0623
      7 C21        50.1300   48.9330   47.3450 C.ar      1 LIG   -0.0617
      8 H23        49.0570   49.0800   47.4410 H         1 LIG    0.0623
      9 C20        50.8730   49.7440   46.4870 C.ar      1 LIG   -0.0543
     10 H22        50.3710   50.5070   45.9020 H         1 LIG    0.0629
     11 C3         52.2640   49.5700   46.3710 C.ar      1 LIG   -0.0156
     12 C2         53.0270   50.3860   45.4650 C.ar      1 LIG    0.0179
     13 C1         53.8790   49.9320   44.3960 C.ar      1 LIG    0.0649
     14 C6         54.2810   48.6860   43.9640 C.ar      1 LIG    0.1307
     15 N2         53.8930   47.5400   44.5700 N.pl3     1 LIG   -0.3262
     16 H2         53.1200   47.6500   45.2150 H         1 LIG    0.1481
     17 C7         54.2250   46.1840   44.0800 C.3       1 LIG    0.0361
     18 C8         55.4700   45.5780   44.7860 C.3       1 LIG    0.0730
     19 H3         55.2430   45.4010   45.8400 H         1 LIG    0.0620
     20 O1         55.8200   44.3310   44.1390 O.3       1 LIG   -0.3766
     21 C27        56.6100   44.6230   42.9550 C.3       1 LIG    0.0471
     22 C26        57.3820   45.9020   43.3110 C.3       1 LIG   -0.0271
     23 C25        56.7640   46.3980   44.6230 C.3       1 LIG   -0.0230
     24 H27        56.6030   47.4730   44.6160 H         1 LIG    0.0295
     25 H32        57.4370   46.1960   45.4500 H         1 LIG    0.0295
     26 H28        58.4500   45.7100   43.4250 H         1 LIG    0.0291
     27 H29        57.2400   46.6430   42.5230 H         1 LIG    0.0291
     28 H30        57.2710   43.7900   42.7030 H         1 LIG    0.0567
     29 H31        55.9470   44.8300   42.1120 H         1 LIG    0.0567
     30 H4         54.3840   46.1850   42.9970 H         1 LIG    0.0494
     31 H5         53.3770   45.5180   44.2710 H         1 LIG    0.0494
     32 N3         55.0610   48.5440   42.8940 N.ar      1 LIG   -0.2210
     33 C9         55.4090   49.6690   42.2500 C.ar      1 LIG    0.1194
     34 H6         56.0400   49.5490   41.3760 H         1 LIG    0.1064
     35 N4         55.0160   50.9120   42.5630 N.ar      1 LIG   -0.2206
     36 C10        54.2410   51.0030   43.6460 C.ar      1 LIG    0.1349
     37 N1         53.6520   52.0920   44.1560 N.ar      1 LIG   -0.2979
     38 H1         53.6420   52.9860   43.6720 H         1 LIG    0.1544
     39 C4         52.9430   51.7790   45.2950 C.ar      1 LIG    0.0475
     40 C5         52.3440   52.7520   46.2050 C.ar      1 LIG   -0.0034
     41 C19        51.8680   52.4520   47.5030 C.ar      1 LIG   -0.0505
     42 C18        51.3710   53.4450   48.3200 C.ar      1 LIG   -0.0311
     43 H20        50.9850   53.1920   49.3080 H         1 LIG    0.0651
     44 H21        51.9220   51.4540   47.9160 H         1 LIG    0.0631
     45 C11        52.3320   54.0870   45.8110 C.ar      1 LIG   -0.0505
     46 H7         52.6950   54.3840   44.8340 H         1 LIG    0.0631
     47 C12        51.8610   55.1060   46.6600 C.ar      1 LIG   -0.0311
     48 H8         51.8610   56.1330   46.3130 H         1 LIG    0.0651
     49 C13        51.3910   54.7770   47.9200 C.ar      1 LIG    0.0752
     50 O2         50.9840   55.7200   48.8340 O.3       1 LIG   -0.3407
     51 C14        51.5740   57.0340   48.9000 C.3       1 LIG    0.0921
     52 H9         51.0230   57.6990   48.2260 H         1 LIG    0.0629
     53 H10        52.6220   56.9900   48.5950 H         1 LIG    0.0629
     54 C15        51.4620   57.5250   50.3620 C.3       1 LIG   -0.0104
     55 H11        50.4180   57.4210   50.6780 H         1 LIG    0.0839
     56 H12        51.7180   58.5880   50.3960 H         1 LIG    0.0839
     57 N5         52.3350   56.8210   51.4100 N.4       1 LIG    0.2441
     58 H13        52.1400   57.2630   52.3340 H         1 LIG    0.1996
     59 C17        52.0030   55.3390   51.5310 C.3       1 LIG   -0.0458
     60 H17        52.2070   54.8400   50.5780 H         1 LIG    0.0777
     61 H18        50.9420   55.2290   51.7750 H         1 LIG    0.0777
     62 H19        52.6200   54.8930   52.3160 H         1 LIG    0.0777
     63 C16        53.8180   56.9800   51.1130 C.3       1 LIG   -0.0458
     64 H14        54.0590   56.5240   50.1480 H         1 LIG    0.0777
     65 H15        54.3950   56.4800   51.8980 H         1 LIG    0.0777
     66 H16        54.0780   58.0420   51.0870 H         1 LIG    0.0777
@<TRIPOS>BOND
     1   13   12 ar
     2   13   14 ar
     3   13   36 ar
     4   36   35 ar
     5   36   37 ar
     6   45   40 ar
     7   45   46 1
     8   45   47 ar
     9   47   48 1
    10   47   49 ar
    11   49   42 ar
    12   49   50 1
    13   51   50 1
    14   51   52 1
    15   51   53 1
    16   51   54 1
    17   54   55 1
    18   54   56 1
    19   54   57 1
    20   63   57 1
    21   63   64 1
    22   63   65 1
    23   63   66 1
    24   59   57 1
    25   59   60 1
    26   59   61 1
    27   59   62 1
    28   42   41 ar
    29   42   43 1
    30   41   40 ar
    31   41   44 1
    32   12   11 1
    33   12   39 ar
    34    9    7 ar
    35    9   10 1
    36    9   11 ar
    37    7    5 ar
    38    7    8 1
    39    5    1 ar
    40    5    6 1
    41    1    2 1
    42    1    3 ar
    43    3    4 1
    44    3   11 ar
    45   23   18 1
    46   23   22 1
    47   23   24 1
    48   23   25 1
    49   22   21 1
    50   22   26 1
    51   22   27 1
    52   21   20 1
    53   21   28 1
    54   21   29 1
    55   39   37 ar
    56   39   40 1
    57   14   15 1
    58   14   32 ar
    59   17   15 1
    60   17   18 1
    61   17   30 1
    62   17   31 1
    63   18   19 1
    64   18   20 1
    65   33   32 ar
    66   33   34 1
    67   33   35 ar
    68   38   37 1
    69   58   57 1
    70   16   15 1
@<TRIPOS>SUBSTRUCTURE
     1 LIG     1 RESIDUE           4 A     LIG     0 ROOT
